Version 4
SHEET 1 880 680
WIRE 64 48 -32 48
WIRE 192 48 144 48
WIRE 304 48 192 48
WIRE -32 96 -32 48
WIRE 192 96 192 48
WIRE 304 96 304 48
WIRE -32 208 -32 176
WIRE 192 208 192 160
WIRE 192 208 -32 208
WIRE 304 208 304 160
WIRE 304 208 192 208
WIRE -32 224 -32 208
FLAG -32 224 0
SYMBOL voltage -32 80 R0
WINDOW 123 0 0 Left 2
WINDOW 39 0 0 Left 2
SYMATTR InstName V1
SYMATTR Value SINE(0 2 50)
SYMBOL res 160 32 R90
WINDOW 0 0 56 VBottom 2
WINDOW 3 32 56 VTop 2
SYMATTR InstName R1
SYMATTR Value 1k
SYMBOL diode 288 96 R0
SYMATTR InstName D1
SYMATTR Value 1N914
SYMBOL diode 176 160 M180
WINDOW 0 24 64 Left 2
WINDOW 3 24 0 Left 2
SYMATTR InstName D2
SYMATTR Value 1N914
TEXT -64 248 Left 2 !.tran 100m
