Version 4
SHEET 1 880 680
WIRE 160 64 80 64
WIRE 336 64 160 64
WIRE 160 112 160 64
WIRE 80 160 80 64
WIRE 160 224 160 208
WIRE 336 224 336 144
WIRE 336 224 160 224
WIRE 160 256 160 224
FLAG 160 256 0
SYMBOL EXTRA\\Philips\\NMOSFET\\2N7000 128 160 R0
SYMATTR InstName U1
SYMBOL voltage 336 48 R0
WINDOW 123 0 0 Left 2
WINDOW 39 0 0 Left 2
SYMATTR InstName V1
SYMATTR Value 2
TEXT 72 280 Left 2 !.dc V1 0 3 0.1
