Version 4
SHEET 1 880 680
WIRE 320 -80 144 -80
WIRE 704 -80 320 -80
WIRE 320 32 320 0
WIRE 384 32 320 32
WIRE 528 32 448 32
WIRE 320 64 320 32
WIRE 16 112 -48 112
WIRE 144 112 144 0
WIRE 144 112 80 112
WIRE 240 112 144 112
WIRE 240 144 240 112
WIRE 272 144 240 144
WIRE 704 144 704 -80
WIRE 144 176 144 112
WIRE -48 192 -48 112
WIRE -48 336 -48 272
WIRE 144 336 144 256
WIRE 144 336 -48 336
WIRE 320 336 320 160
WIRE 320 336 144 336
WIRE 704 336 704 224
WIRE 704 336 320 336
WIRE 320 368 320 336
FLAG 320 368 0
SYMBOL voltage -48 176 R0
WINDOW 123 0 0 Left 2
WINDOW 39 0 0 Left 2
SYMATTR InstName V1
SYMATTR Value SINE(0 20m 1k)
SYMBOL res 128 -96 R0
SYMATTR InstName R1
SYMATTR Value 100k
SYMBOL res 304 -96 R0
SYMATTR InstName R3
SYMATTR Value 200
SYMBOL res 128 160 R0
SYMATTR InstName R2
SYMATTR Value 51k
SYMBOL cap 80 96 R90
WINDOW 0 0 32 VBottom 2
WINDOW 3 32 32 VTop 2
SYMATTR InstName C1
SYMATTR Value 10µ
SYMBOL cap 448 16 R90
WINDOW 0 0 32 VBottom 2
WINDOW 3 32 32 VTop 2
SYMATTR InstName C2
SYMATTR Value 10µ
SYMBOL voltage 704 128 R0
WINDOW 123 0 0 Left 2
WINDOW 39 0 0 Left 2
SYMATTR InstName V2
SYMATTR Value 5
SYMBOL nmos 272 64 R0
SYMATTR InstName M1
SYMATTR Value 2N7000
TEXT -80 392 Left 2 !.tran 10m
