Version 4
SHEET 1 2308 680
WIRE 512 -64 -16 -64
WIRE -16 32 -16 -64
WIRE 80 32 -16 32
WIRE 128 32 80 32
WIRE 512 32 512 -64
WIRE 512 32 464 32
WIRE -16 80 -16 32
WIRE 80 112 80 32
WIRE 128 112 80 112
WIRE 624 112 464 112
WIRE 720 112 624 112
WIRE 624 176 624 112
WIRE -16 192 -16 160
WIRE 128 192 -16 192
WIRE 480 192 464 192
WIRE 560 192 544 192
WIRE 560 224 560 192
WIRE 720 240 720 112
WIRE 128 272 96 272
WIRE 496 272 464 272
WIRE 624 272 624 240
WIRE 96 320 96 272
WIRE -16 336 -16 192
WIRE -16 336 -224 336
WIRE -224 368 -224 336
WIRE 496 368 496 272
WIRE 560 368 496 368
WIRE 720 368 720 320
WIRE 720 368 640 368
WIRE 832 368 720 368
WIRE -16 384 -16 336
WIRE 832 384 832 368
WIRE 496 400 496 368
WIRE 720 400 720 368
WIRE -224 496 -224 448
WIRE -16 496 -16 448
WIRE -16 496 -224 496
WIRE 208 496 -16 496
WIRE 496 496 496 480
WIRE 496 496 208 496
WIRE 720 496 720 464
WIRE 720 496 496 496
WIRE 832 496 832 464
WIRE 832 496 720 496
WIRE 208 544 208 496
FLAG 208 544 0
FLAG 560 224 0
FLAG 624 272 0
FLAG 96 320 0
SYMBOL ind 704 224 R0
SYMATTR InstName L1
SYMATTR Value 220µ
SYMBOL voltage -224 352 R0
WINDOW 123 0 0 Left 2
WINDOW 39 0 0 Left 2
WINDOW 3 24 44 Left 2
SYMATTR Value 12
SYMATTR InstName V1
SYMBOL mc34063 368 128 R0
SYMATTR InstName U1
SYMBOL cap 544 176 R90
WINDOW 0 0 32 VBottom 2
WINDOW 3 32 32 VTop 2
SYMATTR InstName C1
SYMATTR Value 470p
SYMBOL schottky 608 240 M180
WINDOW 0 24 64 Left 2
WINDOW 3 24 0 Left 2
SYMATTR InstName D1
SYMATTR Value 1N5819
SYMATTR Description Diode
SYMATTR Type diode
SYMBOL res -32 64 R0
SYMATTR InstName R1
SYMATTR Value 1.1
SYMATTR SpiceLine tol=5
SYMBOL res 480 384 R0
SYMATTR InstName R2
SYMATTR Value 1k
SYMATTR SpiceLine tol=5
SYMBOL res 656 352 R90
WINDOW 0 0 56 VBottom 2
WINDOW 3 32 56 VTop 2
SYMATTR InstName R3
SYMATTR Value 3k
SYMATTR SpiceLine tol=5
SYMBOL polcap 704 400 R0
WINDOW 3 24 56 Left 2
SYMATTR Value 33µ
SYMATTR InstName C2
SYMATTR Description Capacitor
SYMATTR Type cap
SYMATTR SpiceLine V=6.3 Irms=65m Rser=2.1 Lser=0
SYMBOL polcap -32 384 R0
WINDOW 3 24 56 Left 2
SYMATTR Value 100µ
SYMATTR InstName C5
SYMATTR Description Capacitor
SYMATTR Type cap
SYMATTR SpiceLine V=2 Irms=3 Rser=0.011 Lser=0 mfg="Rubycon" pn="2SXB100M" type="Al electrolytic"
SYMBOL res 816 368 R0
SYMATTR InstName R4
SYMATTR Value 50
TEXT -136 552 Left 2 !.tran 10ms
TEXT 48 608 Left 2 !.include "mc34063.lib"
